/*--------------------------------*- C++ -*----------------------------------*\
| =========                 |                                                 |
| \\      /  F ield         | OpenFOAM: The Open Source CFD Toolbox           |
|  \\    /   O peration     | Version:  v1906                                 |
|   \\  /    A nd           | Web:      www.OpenFOAM.com                      |
|    \\/     M anipulation  |                                                 |
\*---------------------------------------------------------------------------*/
FoamFile
{
    version     2.0;
    format      ascii;
    class       dictionary;
    location    "system";
    object      fvSchemes;
}
// * * * * * * * * * * * * * * * * * * * * * * * * * * * * * * * * * * * * * //

ddtSchemes
{
    default    Euler;
}

gradSchemes
{
    default         cellLimited Gauss linear 1;
    limitedGrad     cellLimited Gauss linear 1;
}

divSchemes
{
    default             none;

    div(((rho*nuEff)*dev2(T(grad(U))))) Gauss linear;

    div(phi,alpha)
                        Gauss vanLeer;

    div(phirb,alpha)    Gauss linear;

    div(rhoPhi,U)       Gauss limitedLinearV 1;

    turbulence          Gauss linearUpwind limitedGrad;

    "div\(.*,(k|epsilon|omega)\)"     $turbulence;

    "div\(phi_b_.*,Nb_.*\)" Gauss vanLeer;    
}

laplacianSchemes
{
    default    Gauss linear corrected;
}

interpolationSchemes
{
    default         linear;
}

snGradSchemes
{
    default    corrected;        
}

wallDist
{
    method meshWave;
}

fluxRequired
{
    default no;
    p_rgh;
    pcorr;
    alpha.water;
}


// ************************************************************************* //
